Version 4
SHEET 1 956 680
WIRE 320 32 240 32
WIRE 464 32 320 32
WIRE 800 32 560 32
WIRE 896 32 800 32
WIRE 800 64 800 32
WIRE 320 80 320 32
WIRE 480 96 480 80
WIRE 800 144 800 128
FLAG 320 160 0
FLAG 240 32 IN
FLAG 896 32 OUT
FLAG 800 144 0
FLAG 480 176 0
SYMBOL voltage 320 64 R0
SYMATTR InstName V1
SYMATTR Value 13.8
SYMBOL load 784 64 R0
SYMATTR InstName I1
SYMATTR Value 25
SYMBOL voltage 480 80 R0
SYMATTR InstName V2
SYMATTR Value 1
SYMBOL InfineonNMOS/BSC080N03LS_L0 560 80 M270
SYMATTR InstName U2
TEXT 408 280 Left 2 !.dc step param V2 list 1 2 3 3.3
